* NGSPICE file created from user_project_wrapper.ext - technology: sky130A

* Black-box entry subcircuit for sky130_fd_sc_hd__fill_2 abstract view
.subckt sky130_fd_sc_hd__fill_2 VGND VNB VPB VPWR
.ends

* Black-box entry subcircuit for sky130_fd_sc_hd__decap_3 abstract view
.subckt sky130_fd_sc_hd__decap_3 VGND VNB VPB VPWR
.ends

* Black-box entry subcircuit for sky130_fd_sc_hd__clkbuf_2 abstract view
.subckt sky130_fd_sc_hd__clkbuf_2 A VGND VNB VPB VPWR X
.ends

* Black-box entry subcircuit for sky130_fd_sc_hd__decap_4 abstract view
.subckt sky130_fd_sc_hd__decap_4 VGND VNB VPB VPWR
.ends

* Black-box entry subcircuit for sky130_fd_sc_hd__inv_2 abstract view
.subckt sky130_fd_sc_hd__inv_2 A VGND VNB VPB VPWR Y
.ends

* Black-box entry subcircuit for sky130_fd_sc_hd__buf_1 abstract view
.subckt sky130_fd_sc_hd__buf_1 A VGND VNB VPB VPWR X
.ends

* Black-box entry subcircuit for sky130_fd_sc_hd__decap_6 abstract view
.subckt sky130_fd_sc_hd__decap_6 VGND VNB VPB VPWR
.ends

* Black-box entry subcircuit for sky130_fd_sc_hd__o22a_1 abstract view
.subckt sky130_fd_sc_hd__o22a_1 A1 A2 B1 B2 VGND VNB VPB VPWR X
.ends

* Black-box entry subcircuit for sky130_fd_sc_hd__fill_1 abstract view
.subckt sky130_fd_sc_hd__fill_1 VGND VNB VPB VPWR
.ends

* Black-box entry subcircuit for sky130_fd_sc_hd__o21a_1 abstract view
.subckt sky130_fd_sc_hd__o21a_1 A1 A2 B1 VGND VNB VPB VPWR X
.ends

* Black-box entry subcircuit for sky130_fd_sc_hd__or2_1 abstract view
.subckt sky130_fd_sc_hd__or2_1 A B VGND VNB VPB VPWR X
.ends

* Black-box entry subcircuit for sky130_fd_sc_hd__decap_8 abstract view
.subckt sky130_fd_sc_hd__decap_8 VGND VNB VPB VPWR
.ends

* Black-box entry subcircuit for sky130_fd_sc_hd__o32a_1 abstract view
.subckt sky130_fd_sc_hd__o32a_1 A1 A2 A3 B1 B2 VGND VNB VPB VPWR X
.ends

* Black-box entry subcircuit for sky130_fd_sc_hd__decap_12 abstract view
.subckt sky130_fd_sc_hd__decap_12 VGND VNB VPB VPWR
.ends

* Black-box entry subcircuit for sky130_fd_sc_hd__nor2_1 abstract view
.subckt sky130_fd_sc_hd__nor2_1 A B VGND VNB VPB VPWR Y
.ends

* Black-box entry subcircuit for sky130_fd_sc_hd__tapvpwrvgnd_1 abstract view
.subckt sky130_fd_sc_hd__tapvpwrvgnd_1 VGND VPWR
.ends

* Black-box entry subcircuit for sky130_fd_sc_hd__a21o_1 abstract view
.subckt sky130_fd_sc_hd__a21o_1 A1 A2 B1 VGND VNB VPB VPWR X
.ends

* Black-box entry subcircuit for sky130_fd_sc_hd__o21ai_1 abstract view
.subckt sky130_fd_sc_hd__o21ai_1 A1 A2 B1 VGND VNB VPB VPWR Y
.ends

* Black-box entry subcircuit for sky130_fd_sc_hd__a2bb2o_1 abstract view
.subckt sky130_fd_sc_hd__a2bb2o_1 A1_N A2_N B1 B2 VGND VNB VPB VPWR X
.ends

* Black-box entry subcircuit for sky130_fd_sc_hd__nand2_1 abstract view
.subckt sky130_fd_sc_hd__nand2_1 A B VGND VNB VPB VPWR Y
.ends

* Black-box entry subcircuit for sky130_fd_sc_hd__dlygate4sd1_1 abstract view
.subckt sky130_fd_sc_hd__dlygate4sd1_1 A VGND VNB VPB VPWR X
.ends

* Black-box entry subcircuit for sky130_fd_sc_hd__o2bb2a_1 abstract view
.subckt sky130_fd_sc_hd__o2bb2a_1 A1_N A2_N B1 B2 VGND VNB VPB VPWR X
.ends

* Black-box entry subcircuit for sky130_fd_sc_hd__and2_1 abstract view
.subckt sky130_fd_sc_hd__and2_1 A B VGND VNB VPB VPWR X
.ends

* Black-box entry subcircuit for sky130_fd_sc_hd__a2bb2o_2 abstract view
.subckt sky130_fd_sc_hd__a2bb2o_2 A1_N A2_N B1 B2 VGND VNB VPB VPWR X
.ends

* Black-box entry subcircuit for sky130_fd_sc_hd__clkinvlp_2 abstract view
.subckt sky130_fd_sc_hd__clkinvlp_2 A VGND VNB VPB VPWR Y
.ends

* Black-box entry subcircuit for sky130_fd_sc_hd__a2bb2oi_1 abstract view
.subckt sky130_fd_sc_hd__a2bb2oi_1 A1_N A2_N B1 B2 VGND VNB VPB VPWR Y
.ends

* Black-box entry subcircuit for sky130_fd_sc_hd__nand2b_1 abstract view
.subckt sky130_fd_sc_hd__nand2b_1 A_N B VGND VNB VPB VPWR Y
.ends

* Black-box entry subcircuit for sky130_fd_sc_hd__o21ai_2 abstract view
.subckt sky130_fd_sc_hd__o21ai_2 A1 A2 B1 VGND VNB VPB VPWR Y
.ends

* Black-box entry subcircuit for sky130_fd_sc_hd__a21bo_1 abstract view
.subckt sky130_fd_sc_hd__a21bo_1 A1 A2 B1_N VGND VNB VPB VPWR X
.ends

* Black-box entry subcircuit for sky130_fd_sc_hd__a21oi_1 abstract view
.subckt sky130_fd_sc_hd__a21oi_1 A1 A2 B1 VGND VNB VPB VPWR Y
.ends

* Black-box entry subcircuit for sky130_fd_sc_hd__o221a_2 abstract view
.subckt sky130_fd_sc_hd__o221a_2 A1 A2 B1 B2 C1 VGND VNB VPB VPWR X
.ends

* Black-box entry subcircuit for sky130_fd_sc_hd__a2bb2oi_2 abstract view
.subckt sky130_fd_sc_hd__a2bb2oi_2 A1_N A2_N B1 B2 VGND VNB VPB VPWR Y
.ends

* Black-box entry subcircuit for sky130_fd_sc_hd__o21ba_1 abstract view
.subckt sky130_fd_sc_hd__o21ba_1 A1 A2 B1_N VGND VNB VPB VPWR X
.ends

* Black-box entry subcircuit for sky130_fd_sc_hd__a221o_2 abstract view
.subckt sky130_fd_sc_hd__a221o_2 A1 A2 B1 B2 C1 VGND VNB VPB VPWR X
.ends

* Black-box entry subcircuit for sky130_fd_sc_hd__or2b_1 abstract view
.subckt sky130_fd_sc_hd__or2b_1 A B_N VGND VNB VPB VPWR X
.ends

* Black-box entry subcircuit for sky130_fd_sc_hd__a22o_1 abstract view
.subckt sky130_fd_sc_hd__a22o_1 A1 A2 B1 B2 VGND VNB VPB VPWR X
.ends

* Black-box entry subcircuit for sky130_fd_sc_hd__nand2_2 abstract view
.subckt sky130_fd_sc_hd__nand2_2 A B VGND VNB VPB VPWR Y
.ends

* Black-box entry subcircuit for sky130_fd_sc_hd__dlymetal6s2s_1 abstract view
.subckt sky130_fd_sc_hd__dlymetal6s2s_1 A VGND VNB VPB VPWR X
.ends

* Black-box entry subcircuit for sky130_fd_sc_hd__o211a_1 abstract view
.subckt sky130_fd_sc_hd__o211a_1 A1 A2 B1 C1 VGND VNB VPB VPWR X
.ends

* Black-box entry subcircuit for sky130_fd_sc_hd__diode_2 abstract view
.subckt sky130_fd_sc_hd__diode_2 DIODE VGND VNB VPB VPWR
.ends

* Black-box entry subcircuit for sky130_fd_sc_hd__inv_4 abstract view
.subckt sky130_fd_sc_hd__inv_4 A VGND VNB VPB VPWR Y
.ends

* Black-box entry subcircuit for sky130_fd_sc_hd__a2bb2oi_4 abstract view
.subckt sky130_fd_sc_hd__a2bb2oi_4 A1_N A2_N B1 B2 VGND VNB VPB VPWR Y
.ends

* Black-box entry subcircuit for sky130_fd_sc_hd__and2b_1 abstract view
.subckt sky130_fd_sc_hd__and2b_1 A_N B VGND VNB VPB VPWR X
.ends

* Black-box entry subcircuit for sky130_fd_sc_hd__o221a_1 abstract view
.subckt sky130_fd_sc_hd__o221a_1 A1 A2 B1 B2 C1 VGND VNB VPB VPWR X
.ends

* Black-box entry subcircuit for sky130_fd_sc_hd__or2_2 abstract view
.subckt sky130_fd_sc_hd__or2_2 A B VGND VNB VPB VPWR X
.ends

* Black-box entry subcircuit for sky130_fd_sc_hd__nor2b_1 abstract view
.subckt sky130_fd_sc_hd__nor2b_1 A B_N VGND VNB VPB VPWR Y
.ends

* Black-box entry subcircuit for sky130_fd_sc_hd__o21ba_2 abstract view
.subckt sky130_fd_sc_hd__o21ba_2 A1 A2 B1_N VGND VNB VPB VPWR X
.ends

* Black-box entry subcircuit for sky130_fd_sc_hd__o2bb2ai_1 abstract view
.subckt sky130_fd_sc_hd__o2bb2ai_1 A1_N A2_N B1 B2 VGND VNB VPB VPWR Y
.ends

* Black-box entry subcircuit for sky130_fd_sc_hd__and3_1 abstract view
.subckt sky130_fd_sc_hd__and3_1 A B C VGND VNB VPB VPWR X
.ends

* Black-box entry subcircuit for sky130_fd_sc_hd__clkbuf_4 abstract view
.subckt sky130_fd_sc_hd__clkbuf_4 A VGND VNB VPB VPWR X
.ends

* Black-box entry subcircuit for sky130_fd_sc_hd__buf_6 abstract view
.subckt sky130_fd_sc_hd__buf_6 A VGND VNB VPB VPWR X
.ends

* Black-box entry subcircuit for sky130_fd_sc_hd__o22a_2 abstract view
.subckt sky130_fd_sc_hd__o22a_2 A1 A2 B1 B2 VGND VNB VPB VPWR X
.ends

* Black-box entry subcircuit for sky130_fd_sc_hd__a2bb2o_4 abstract view
.subckt sky130_fd_sc_hd__a2bb2o_4 A1_N A2_N B1 B2 VGND VNB VPB VPWR X
.ends

* Black-box entry subcircuit for sky130_fd_sc_hd__buf_2 abstract view
.subckt sky130_fd_sc_hd__buf_2 A VGND VNB VPB VPWR X
.ends

* Black-box entry subcircuit for sky130_fd_sc_hd__a221o_1 abstract view
.subckt sky130_fd_sc_hd__a221o_1 A1 A2 B1 B2 C1 VGND VNB VPB VPWR X
.ends

* Black-box entry subcircuit for sky130_fd_sc_hd__a21oi_2 abstract view
.subckt sky130_fd_sc_hd__a21oi_2 A1 A2 B1 VGND VNB VPB VPWR Y
.ends

* Black-box entry subcircuit for sky130_fd_sc_hd__o21bai_1 abstract view
.subckt sky130_fd_sc_hd__o21bai_1 A1 A2 B1_N VGND VNB VPB VPWR Y
.ends

* Black-box entry subcircuit for sky130_fd_sc_hd__a31o_1 abstract view
.subckt sky130_fd_sc_hd__a31o_1 A1 A2 A3 B1 VGND VNB VPB VPWR X
.ends

* Black-box entry subcircuit for sky130_fd_sc_hd__o22a_4 abstract view
.subckt sky130_fd_sc_hd__o22a_4 A1 A2 B1 B2 VGND VNB VPB VPWR X
.ends

* Black-box entry subcircuit for sky130_fd_sc_hd__a21boi_1 abstract view
.subckt sky130_fd_sc_hd__a21boi_1 A1 A2 B1_N VGND VNB VPB VPWR Y
.ends

* Black-box entry subcircuit for sky130_fd_sc_hd__a32o_1 abstract view
.subckt sky130_fd_sc_hd__a32o_1 A1 A2 A3 B1 B2 VGND VNB VPB VPWR X
.ends

* Black-box entry subcircuit for sky130_fd_sc_hd__o2bb2a_4 abstract view
.subckt sky130_fd_sc_hd__o2bb2a_4 A1_N A2_N B1 B2 VGND VNB VPB VPWR X
.ends

* Black-box entry subcircuit for sky130_fd_sc_hd__o22ai_2 abstract view
.subckt sky130_fd_sc_hd__o22ai_2 A1 A2 B1 B2 VGND VNB VPB VPWR Y
.ends

* Black-box entry subcircuit for sky130_fd_sc_hd__a22o_2 abstract view
.subckt sky130_fd_sc_hd__a22o_2 A1 A2 B1 B2 VGND VNB VPB VPWR X
.ends

* Black-box entry subcircuit for sky130_fd_sc_hd__o2bb2a_2 abstract view
.subckt sky130_fd_sc_hd__o2bb2a_2 A1_N A2_N B1 B2 VGND VNB VPB VPWR X
.ends

* Black-box entry subcircuit for sky130_fd_sc_hd__o221a_4 abstract view
.subckt sky130_fd_sc_hd__o221a_4 A1 A2 B1 B2 C1 VGND VNB VPB VPWR X
.ends

* Black-box entry subcircuit for sky130_fd_sc_hd__or3_2 abstract view
.subckt sky130_fd_sc_hd__or3_2 A B C VGND VNB VPB VPWR X
.ends

* Black-box entry subcircuit for sky130_fd_sc_hd__dfxtp_1 abstract view
.subckt sky130_fd_sc_hd__dfxtp_1 CLK D VGND VNB VPB VPWR Q
.ends

* Black-box entry subcircuit for sky130_fd_sc_hd__o22ai_1 abstract view
.subckt sky130_fd_sc_hd__o22ai_1 A1 A2 B1 B2 VGND VNB VPB VPWR Y
.ends

* Black-box entry subcircuit for sky130_fd_sc_hd__a22oi_1 abstract view
.subckt sky130_fd_sc_hd__a22oi_1 A1 A2 B1 B2 VGND VNB VPB VPWR Y
.ends

* Black-box entry subcircuit for sky130_fd_sc_hd__or4_2 abstract view
.subckt sky130_fd_sc_hd__or4_2 A B C D VGND VNB VPB VPWR X
.ends

* Black-box entry subcircuit for sky130_fd_sc_hd__o211ai_1 abstract view
.subckt sky130_fd_sc_hd__o211ai_1 A1 A2 B1 C1 VGND VNB VPB VPWR Y
.ends

* Black-box entry subcircuit for sky130_fd_sc_hd__or4b_1 abstract view
.subckt sky130_fd_sc_hd__or4b_1 A B C D_N VGND VNB VPB VPWR X
.ends

* Black-box entry subcircuit for sky130_fd_sc_hd__nor2_2 abstract view
.subckt sky130_fd_sc_hd__nor2_2 A B VGND VNB VPB VPWR Y
.ends

* Black-box entry subcircuit for sky130_fd_sc_hd__mux2_1 abstract view
.subckt sky130_fd_sc_hd__mux2_1 A0 A1 S VGND VNB VPB VPWR X
.ends

* Black-box entry subcircuit for sky130_fd_sc_hd__o311a_1 abstract view
.subckt sky130_fd_sc_hd__o311a_1 A1 A2 A3 B1 C1 VGND VNB VPB VPWR X
.ends

* Black-box entry subcircuit for sky130_fd_sc_hd__clkbuf_8 abstract view
.subckt sky130_fd_sc_hd__clkbuf_8 A VGND VNB VPB VPWR X
.ends

* Black-box entry subcircuit for sky130_fd_sc_hd__a221o_4 abstract view
.subckt sky130_fd_sc_hd__a221o_4 A1 A2 B1 B2 C1 VGND VNB VPB VPWR X
.ends

* Black-box entry subcircuit for sky130_fd_sc_hd__or3_1 abstract view
.subckt sky130_fd_sc_hd__or3_1 A B C VGND VNB VPB VPWR X
.ends

* Black-box entry subcircuit for sky130_fd_sc_hd__a2111oi_2 abstract view
.subckt sky130_fd_sc_hd__a2111oi_2 A1 A2 B1 C1 D1 VGND VNB VPB VPWR Y
.ends

* Black-box entry subcircuit for sky130_fd_sc_hd__buf_4 abstract view
.subckt sky130_fd_sc_hd__buf_4 A VGND VNB VPB VPWR X
.ends

* Black-box entry subcircuit for sky130_fd_sc_hd__nand2_4 abstract view
.subckt sky130_fd_sc_hd__nand2_4 A B VGND VNB VPB VPWR Y
.ends

* Black-box entry subcircuit for sky130_fd_sc_hd__inv_6 abstract view
.subckt sky130_fd_sc_hd__inv_6 A VGND VNB VPB VPWR Y
.ends

* Black-box entry subcircuit for sky130_fd_sc_hd__o22ai_4 abstract view
.subckt sky130_fd_sc_hd__o22ai_4 A1 A2 B1 B2 VGND VNB VPB VPWR Y
.ends

* Black-box entry subcircuit for sky130_fd_sc_hd__nor4_1 abstract view
.subckt sky130_fd_sc_hd__nor4_1 A B C D VGND VNB VPB VPWR Y
.ends

* Black-box entry subcircuit for sky130_fd_sc_hd__a22oi_2 abstract view
.subckt sky130_fd_sc_hd__a22oi_2 A1 A2 B1 B2 VGND VNB VPB VPWR Y
.ends

* Black-box entry subcircuit for sky130_fd_sc_hd__or2_4 abstract view
.subckt sky130_fd_sc_hd__or2_4 A B VGND VNB VPB VPWR X
.ends

* Black-box entry subcircuit for sky130_fd_sc_hd__a21bo_2 abstract view
.subckt sky130_fd_sc_hd__a21bo_2 A1 A2 B1_N VGND VNB VPB VPWR X
.ends

* Black-box entry subcircuit for sky130_fd_sc_hd__o2bb2ai_2 abstract view
.subckt sky130_fd_sc_hd__o2bb2ai_2 A1_N A2_N B1 B2 VGND VNB VPB VPWR Y
.ends

* Black-box entry subcircuit for sky130_fd_sc_hd__o31a_1 abstract view
.subckt sky130_fd_sc_hd__o31a_1 A1 A2 A3 B1 VGND VNB VPB VPWR X
.ends

* Black-box entry subcircuit for sky130_fd_sc_hd__clkbuf_16 abstract view
.subckt sky130_fd_sc_hd__clkbuf_16 A VGND VNB VPB VPWR X
.ends

* Black-box entry subcircuit for sky130_fd_sc_hd__inv_1 abstract view
.subckt sky130_fd_sc_hd__inv_1 A VGND VNB VPB VPWR Y
.ends

* Black-box entry subcircuit for sky130_fd_sc_hd__o21a_2 abstract view
.subckt sky130_fd_sc_hd__o21a_2 A1 A2 B1 VGND VNB VPB VPWR X
.ends

* Black-box entry subcircuit for sky130_fd_sc_hd__and2b_2 abstract view
.subckt sky130_fd_sc_hd__and2b_2 A_N B VGND VNB VPB VPWR X
.ends

* Black-box entry subcircuit for sky130_fd_sc_hd__o211a_2 abstract view
.subckt sky130_fd_sc_hd__o211a_2 A1 A2 B1 C1 VGND VNB VPB VPWR X
.ends

* Black-box entry subcircuit for sky130_fd_sc_hd__dlxtn_1 abstract view
.subckt sky130_fd_sc_hd__dlxtn_1 D GATE_N VGND VNB VPB VPWR Q
.ends

* Black-box entry subcircuit for sky130_fd_sc_hd__conb_1 abstract view
.subckt sky130_fd_sc_hd__conb_1 VGND VNB VPB VPWR HI LO
.ends

* Black-box entry subcircuit for sky130_fd_sc_hd__clkbuf_1 abstract view
.subckt sky130_fd_sc_hd__clkbuf_1 A VGND VNB VPB VPWR X
.ends

* Black-box entry subcircuit for sky130_fd_sc_hd__o41a_1 abstract view
.subckt sky130_fd_sc_hd__o41a_1 A1 A2 A3 A4 B1 VGND VNB VPB VPWR X
.ends

* Black-box entry subcircuit for sky130_fd_sc_hd__nor3b_1 abstract view
.subckt sky130_fd_sc_hd__nor3b_1 A B C_N VGND VNB VPB VPWR Y
.ends

* Black-box entry subcircuit for sky130_fd_sc_hd__or4_1 abstract view
.subckt sky130_fd_sc_hd__or4_1 A B C D VGND VNB VPB VPWR X
.ends

* Black-box entry subcircuit for sky130_fd_sc_hd__o211ai_4 abstract view
.subckt sky130_fd_sc_hd__o211ai_4 A1 A2 B1 C1 VGND VNB VPB VPWR Y
.ends

.subckt user_project_wrapper VGND VPWR wb_clk_i wb_rst_i wbs_ack_o wbs_adr_i[0] wbs_adr_i[10]
+ wbs_adr_i[11] wbs_adr_i[12] wbs_adr_i[13] wbs_adr_i[14] wbs_adr_i[15] wbs_adr_i[16]
+ wbs_adr_i[17] wbs_adr_i[18] wbs_adr_i[19] wbs_adr_i[1] wbs_adr_i[20] wbs_adr_i[21]
+ wbs_adr_i[22] wbs_adr_i[23] wbs_adr_i[24] wbs_adr_i[25] wbs_adr_i[26] wbs_adr_i[27]
+ wbs_adr_i[28] wbs_adr_i[29] wbs_adr_i[2] wbs_adr_i[30] wbs_adr_i[31] wbs_adr_i[3]
+ wbs_adr_i[4] wbs_adr_i[5] wbs_adr_i[6] wbs_adr_i[7] wbs_adr_i[8] wbs_adr_i[9] wbs_dat_i[0]
+ wbs_dat_i[10] wbs_dat_i[11] wbs_dat_i[12] wbs_dat_i[13] wbs_dat_i[14] wbs_dat_i[15]
+ wbs_dat_i[16] wbs_dat_i[17] wbs_dat_i[18] wbs_dat_i[19] wbs_dat_i[1] wbs_dat_i[20]
+ wbs_dat_i[21] wbs_dat_i[22] wbs_dat_i[23] wbs_dat_i[24] wbs_dat_i[25] wbs_dat_i[26]
+ wbs_dat_i[27] wbs_dat_i[28] wbs_dat_i[29] wbs_dat_i[2] wbs_dat_i[30] wbs_dat_i[31]
+ wbs_dat_i[3] wbs_dat_i[4] wbs_dat_i[5] wbs_dat_i[6] wbs_dat_i[7] wbs_dat_i[8] wbs_dat_i[9]
XFILLER_100_138 VGND VGND VPWR VPWR sky130_fd_sc_hd__fill_2
XFILLER_39_244 VGND VGND VPWR VPWR sky130_fd_sc_hd__fill_2
XFILLER_94_361 VGND VGND VPWR VPWR sky130_fd_sc_hd__decap_3
X_09671_ _10763_/A VGND VGND VPWR VPWR _09672_/A sky130_fd_sc_hd__clkbuf_2
XFILLER_94_394 VGND VGND VPWR VPWR sky130_fd_sc_hd__decap_4
XFILLER_82_545 VGND VGND VPWR VPWR sky130_fd_sc_hd__decap_4
X_08622_ _08622_/A VGND VGND VPWR VPWR _10112_/B sky130_fd_sc_hd__inv_2
XFILLER_54_269 VGND VGND VPWR VPWR sky130_fd_sc_hd__decap_4
X_08553_ _09470_/B VGND VGND VPWR VPWR _08688_/A sky130_fd_sc_hd__buf_1
XFILLER_82_589 VGND VGND VPWR VPWR sky130_fd_sc_hd__decap_6
X_08484_ _08275_/A _08357_/B _08480_/Y _08483_/X VGND VGND VPWR VPWR _08625_/A sky130_fd_sc_hd__o22a_1
XFILLER_22_155 VGND VGND VPWR VPWR sky130_fd_sc_hd__fill_1
XFILLER_109_706 VGND VGND VPWR VPWR sky130_fd_sc_hd__decap_4
X_09105_ _08674_/Y _09028_/A _09030_/B VGND VGND VPWR VPWR _09105_/X sky130_fd_sc_hd__o21a_1
XFILLER_108_249 VGND VGND VPWR VPWR sky130_fd_sc_hd__decap_3
X_09036_ _09555_/B _09036_/B VGND VGND VPWR VPWR _09037_/B sky130_fd_sc_hd__or2_1
XFILLER_117_77 VGND VGND VPWR VPWR sky130_fd_sc_hd__decap_6
XFILLER_117_55 VGND VGND VPWR VPWR sky130_fd_sc_hd__fill_1
XFILLER_116_293 VGND VGND VPWR VPWR sky130_fd_sc_hd__decap_6
XFILLER_104_444 VGND VGND VPWR VPWR sky130_fd_sc_hd__decap_4
XFILLER_77_15 VGND VGND VPWR VPWR sky130_fd_sc_hd__fill_2
XFILLER_104_477 VGND VGND VPWR VPWR sky130_fd_sc_hd__fill_2
XFILLER_104_466 VGND VGND VPWR VPWR sky130_fd_sc_hd__decap_8
XFILLER_89_188 VGND VGND VPWR VPWR sky130_fd_sc_hd__decap_6
XFILLER_77_317 VGND VGND VPWR VPWR sky130_fd_sc_hd__decap_4
X_09938_ _09936_/X _09937_/Y _09791_/C _09874_/X _09888_/X VGND VGND VPWR VPWR _09938_/X
+ sky130_fd_sc_hd__o32a_1
XFILLER_58_531 VGND VGND VPWR VPWR sky130_fd_sc_hd__fill_1
XFILLER_100_661 VGND VGND VPWR VPWR sky130_fd_sc_hd__decap_4
XFILLER_92_309 VGND VGND VPWR VPWR sky130_fd_sc_hd__fill_2
X_09869_ _09451_/Y _09868_/X _09472_/X VGND VGND VPWR VPWR _09869_/X sky130_fd_sc_hd__o21a_1
XFILLER_73_523 VGND VGND VPWR VPWR sky130_fd_sc_hd__decap_12
X_11900_ _11900_/A VGND VGND VPWR VPWR _11900_/Y sky130_fd_sc_hd__inv_2
X_12880_ _14599_/A _12942_/B VGND VGND VPWR VPWR _12880_/Y sky130_fd_sc_hd__nor2_1
XFILLER_45_225 VGND VGND VPWR VPWR sky130_fd_sc_hd__decap_6
XFILLER_18_428 VGND VGND VPWR VPWR sky130_fd_sc_hd__decap_4
XTAP_1800 VGND VPWR sky130_fd_sc_hd__tapvpwrvgnd_1
XFILLER_93_69 VGND VGND VPWR VPWR sky130_fd_sc_hd__decap_12
XFILLER_73_567 VGND VGND VPWR VPWR sky130_fd_sc_hd__decap_4
XFILLER_61_707 VGND VGND VPWR VPWR sky130_fd_sc_hd__decap_8
X_11831_ _11790_/A _11790_/B _11790_/Y VGND VGND VPWR VPWR _11831_/X sky130_fd_sc_hd__a21o_1
XFILLER_45_258 VGND VGND VPWR VPWR sky130_fd_sc_hd__decap_6
XTAP_1833 VGND VPWR sky130_fd_sc_hd__tapvpwrvgnd_1
XTAP_1822 VGND VPWR sky130_fd_sc_hd__tapvpwrvgnd_1
XTAP_1811 VGND VPWR sky130_fd_sc_hd__tapvpwrvgnd_1
X_14550_ _14581_/A _14581_/B VGND VGND VPWR VPWR _14550_/Y sky130_fd_sc_hd__nor2_1
XFILLER_61_729 VGND VGND VPWR VPWR sky130_fd_sc_hd__decap_3
XTAP_1855 VGND VPWR sky130_fd_sc_hd__tapvpwrvgnd_1
XTAP_1866 VGND VPWR sky130_fd_sc_hd__tapvpwrvgnd_1
XTAP_1844 VGND VPWR sky130_fd_sc_hd__tapvpwrvgnd_1
X_13501_ _13503_/A VGND VGND VPWR VPWR _15046_/A sky130_fd_sc_hd__buf_1
X_11762_ _11762_/A _11762_/B VGND VGND VPWR VPWR _11762_/Y sky130_fd_sc_hd__nor2_1
XFILLER_14_645 VGND VGND VPWR VPWR sky130_fd_sc_hd__decap_4
XFILLER_14_656 VGND VGND VPWR VPWR sky130_fd_sc_hd__decap_6
XTAP_1899 VGND VPWR sky130_fd_sc_hd__tapvpwrvgnd_1
XTAP_1888 VGND VPWR sky130_fd_sc_hd__tapvpwrvgnd_1
XTAP_1877 VGND VPWR sky130_fd_sc_hd__tapvpwrvgnd_1
X_14481_ _14468_/A _14468_/B _14468_/Y VGND VGND VPWR VPWR _14481_/Y sky130_fd_sc_hd__o21ai_1
X_10713_ _11910_/A VGND VGND VPWR VPWR _13696_/A sky130_fd_sc_hd__buf_1
XFILLER_41_475 VGND VGND VPWR VPWR sky130_fd_sc_hd__fill_1
X_11693_ _12426_/B VGND VGND VPWR VPWR _11694_/B sky130_fd_sc_hd__inv_2
X_16220_ _16253_/B VGND VGND VPWR VPWR _16320_/A sky130_fd_sc_hd__clkbuf_2
X_13432_ _14111_/A _13435_/B VGND VGND VPWR VPWR _13432_/Y sky130_fd_sc_hd__nor2_1
X_10644_ _10644_/A VGND VGND VPWR VPWR _10644_/Y sky130_fd_sc_hd__inv_2
XFILLER_42_40 VGND VGND VPWR VPWR sky130_fd_sc_hd__fill_1
XFILLER_41_486 VGND VGND VPWR VPWR sky130_fd_sc_hd__fill_1
X_16151_ _15818_/X _16150_/X _15818_/X _16150_/X VGND VGND VPWR VPWR _16152_/B sky130_fd_sc_hd__a2bb2o_1
X_13363_ _13390_/A _13361_/X _13362_/X VGND VGND VPWR VPWR _13363_/X sky130_fd_sc_hd__o21a_1
X_10575_ _10675_/A _12695_/A _10574_/Y VGND VGND VPWR VPWR _10575_/X sky130_fd_sc_hd__a21o_1
XFILLER_127_536 VGND VGND VPWR VPWR sky130_fd_sc_hd__decap_4
X_12314_ _12314_/A _12314_/B VGND VGND VPWR VPWR _12314_/Y sky130_fd_sc_hd__nand2_1
X_15102_ _12383_/Y _15101_/X _12383_/Y _15101_/X VGND VGND VPWR VPWR _15104_/B sky130_fd_sc_hd__a2bb2o_1
Xrebuffer7 rebuffer8/X VGND VGND VPWR VPWR rebuffer7/X sky130_fd_sc_hd__dlygate4sd1_1
X_16082_ _16084_/A _16084_/B VGND VGND VPWR VPWR _16082_/Y sky130_fd_sc_hd__nor2_1
XFILLER_114_208 VGND VGND VPWR VPWR sky130_fd_sc_hd__decap_4
X_13294_ _14736_/A _13294_/B VGND VGND VPWR VPWR _13294_/Y sky130_fd_sc_hd__nand2_1
XFILLER_5_343 VGND VGND VPWR VPWR sky130_fd_sc_hd__decap_8
XFILLER_123_720 VGND VGND VPWR VPWR sky130_fd_sc_hd__fill_1
X_12245_ _14023_/A _12217_/B _12217_/Y _12244_/X VGND VGND VPWR VPWR _12245_/X sky130_fd_sc_hd__a2bb2o_1
X_15033_ _15076_/A _15031_/X _15032_/X VGND VGND VPWR VPWR _15033_/X sky130_fd_sc_hd__o21a_1
XFILLER_123_753 VGND VGND VPWR VPWR sky130_fd_sc_hd__decap_12
X_12176_ _12176_/A _12176_/B VGND VGND VPWR VPWR _12176_/Y sky130_fd_sc_hd__nor2_1
XFILLER_123_797 VGND VGND VPWR VPWR sky130_fd_sc_hd__fill_1
XFILLER_95_103 VGND VGND VPWR VPWR sky130_fd_sc_hd__decap_8
XFILLER_68_317 VGND VGND VPWR VPWR sky130_fd_sc_hd__fill_1
X_11127_ _12189_/A VGND VGND VPWR VPWR _13715_/A sky130_fd_sc_hd__buf_1
X_15935_ _15891_/X _15934_/Y _15891_/X _15934_/Y VGND VGND VPWR VPWR _15954_/B sky130_fd_sc_hd__a2bb2o_1
X_11058_ _10911_/X _11057_/Y _10911_/X _11057_/Y VGND VGND VPWR VPWR _11078_/B sky130_fd_sc_hd__a2bb2o_1
XFILLER_49_564 VGND VGND VPWR VPWR sky130_fd_sc_hd__decap_12
X_15866_ _15866_/A VGND VGND VPWR VPWR _15896_/A sky130_fd_sc_hd__inv_2
XFILLER_76_372 VGND VGND VPWR VPWR sky130_fd_sc_hd__decap_8
X_10009_ _10009_/A _10009_/B VGND VGND VPWR VPWR _10035_/B sky130_fd_sc_hd__nor2_1
X_14817_ _14812_/A _14812_/B _14812_/Y _14816_/X VGND VGND VPWR VPWR _14817_/X sky130_fd_sc_hd__o2bb2a_1
X_15797_ _16099_/A _15800_/B VGND VGND VPWR VPWR _15797_/Y sky130_fd_sc_hd__nor2_1
XFILLER_17_483 VGND VGND VPWR VPWR sky130_fd_sc_hd__decap_4
X_14748_ _14667_/X _14681_/A _14680_/X VGND VGND VPWR VPWR _14748_/X sky130_fd_sc_hd__o21a_1
XFILLER_44_280 VGND VGND VPWR VPWR sky130_fd_sc_hd__fill_1
X_14679_ _15184_/A _14680_/B VGND VGND VPWR VPWR _14681_/A sky130_fd_sc_hd__and2_1
XFILLER_60_784 VGND VGND VPWR VPWR sky130_fd_sc_hd__fill_1
X_16418_ _16473_/Q VGND VGND VPWR VPWR _16419_/B sky130_fd_sc_hd__inv_2
XFILLER_32_486 VGND VGND VPWR VPWR sky130_fd_sc_hd__decap_4
X_16349_ _16335_/X _16348_/Y _16335_/X _16348_/Y VGND VGND VPWR VPWR _16349_/X sky130_fd_sc_hd__a2bb2o_2
XFILLER_8_181 VGND VGND VPWR VPWR sky130_fd_sc_hd__decap_4
XFILLER_99_420 VGND VGND VPWR VPWR sky130_fd_sc_hd__decap_4
XFILLER_114_764 VGND VGND VPWR VPWR sky130_fd_sc_hd__decap_4
XFILLER_113_263 VGND VGND VPWR VPWR sky130_fd_sc_hd__decap_6
XFILLER_87_637 VGND VGND VPWR VPWR sky130_fd_sc_hd__decap_4
XFILLER_59_317 VGND VGND VPWR VPWR sky130_fd_sc_hd__decap_4
XFILLER_86_147 VGND VGND VPWR VPWR sky130_fd_sc_hd__fill_1
XFILLER_86_136 VGND VGND VPWR VPWR sky130_fd_sc_hd__decap_4
XFILLER_74_309 VGND VGND VPWR VPWR sky130_fd_sc_hd__decap_8
XFILLER_67_361 VGND VGND VPWR VPWR sky130_fd_sc_hd__decap_8
XFILLER_47_29 VGND VGND VPWR VPWR sky130_fd_sc_hd__decap_4
XFILLER_28_704 VGND VGND VPWR VPWR sky130_fd_sc_hd__decap_4
XFILLER_28_715 VGND VGND VPWR VPWR sky130_fd_sc_hd__fill_1
X_09723_ _09723_/A _09723_/B VGND VGND VPWR VPWR _09723_/Y sky130_fd_sc_hd__nand2_1
XFILLER_55_512 VGND VGND VPWR VPWR sky130_fd_sc_hd__decap_4
XFILLER_27_214 VGND VGND VPWR VPWR sky130_fd_sc_hd__decap_8
X_09654_ _09981_/A _09654_/B VGND VGND VPWR VPWR _09654_/Y sky130_fd_sc_hd__nand2_1
XFILLER_28_726 VGND VGND VPWR VPWR sky130_fd_sc_hd__decap_8
X_08605_ _09249_/A _09217_/B _10015_/A _08604_/Y VGND VGND VPWR VPWR _08605_/X sky130_fd_sc_hd__o22a_1
XFILLER_70_537 VGND VGND VPWR VPWR sky130_fd_sc_hd__fill_1
XTAP_1118 VGND VPWR sky130_fd_sc_hd__tapvpwrvgnd_1
XTAP_1129 VGND VPWR sky130_fd_sc_hd__tapvpwrvgnd_1
XTAP_1107 VGND VPWR sky130_fd_sc_hd__tapvpwrvgnd_1
XFILLER_43_729 VGND VGND VPWR VPWR sky130_fd_sc_hd__decap_3
X_09585_ _09993_/A _09662_/B VGND VGND VPWR VPWR _09585_/Y sky130_fd_sc_hd__nor2_1
X_08536_ _08535_/A _08453_/Y _08535_/Y _08453_/A VGND VGND VPWR VPWR _10119_/B sky130_fd_sc_hd__o22a_1
XFILLER_50_250 VGND VGND VPWR VPWR sky130_fd_sc_hd__fill_2
X_08467_ _09146_/A VGND VGND VPWR VPWR _08704_/B sky130_fd_sc_hd__clkinvlp_2
XFILLER_50_261 VGND VGND VPWR VPWR sky130_fd_sc_hd__fill_2
XFILLER_10_103 VGND VGND VPWR VPWR sky130_fd_sc_hd__decap_8
X_08398_ _08398_/A VGND VGND VPWR VPWR _08398_/Y sky130_fd_sc_hd__inv_2
XFILLER_10_147 VGND VGND VPWR VPWR sky130_fd_sc_hd__decap_4
XFILLER_109_536 VGND VGND VPWR VPWR sky130_fd_sc_hd__fill_1
X_10360_ _13524_/A _10319_/B _10319_/X _10359_/X VGND VGND VPWR VPWR _10360_/X sky130_fd_sc_hd__o22a_1
X_10291_ _12707_/A _10291_/B VGND VGND VPWR VPWR _10291_/X sky130_fd_sc_hd__or2_1
X_09019_ _09019_/A VGND VGND VPWR VPWR _09531_/B sky130_fd_sc_hd__inv_2
X_12030_ _13078_/A _11972_/B _11972_/Y VGND VGND VPWR VPWR _12030_/Y sky130_fd_sc_hd__o21ai_1
XFILLER_105_797 VGND VGND VPWR VPWR sky130_fd_sc_hd__fill_1
XFILLER_78_648 VGND VGND VPWR VPWR sky130_fd_sc_hd__decap_4
XFILLER_77_136 VGND VGND VPWR VPWR sky130_fd_sc_hd__decap_12
XFILLER_93_607 VGND VGND VPWR VPWR sky130_fd_sc_hd__decap_8
X_13981_ _13862_/X _13980_/Y _13878_/Y VGND VGND VPWR VPWR _13981_/X sky130_fd_sc_hd__o21a_1
XFILLER_19_715 VGND VGND VPWR VPWR sky130_fd_sc_hd__decap_4
X_15720_ _14923_/X _15719_/X _14923_/X _15719_/X VGND VGND VPWR VPWR _15721_/B sky130_fd_sc_hd__a2bb2oi_1
X_12932_ _12932_/A _12932_/B VGND VGND VPWR VPWR _12932_/Y sky130_fd_sc_hd__nand2_1
XFILLER_58_383 VGND VGND VPWR VPWR sky130_fd_sc_hd__decap_6
XFILLER_37_40 VGND VGND VPWR VPWR sky130_fd_sc_hd__decap_8
X_15651_ _15651_/A VGND VGND VPWR VPWR _15651_/Y sky130_fd_sc_hd__inv_2
XFILLER_85_180 VGND VGND VPWR VPWR sky130_fd_sc_hd__fill_1
XFILLER_18_236 VGND VGND VPWR VPWR sky130_fd_sc_hd__decap_4
X_14602_ _15187_/A _14603_/B VGND VGND VPWR VPWR _14604_/A sky130_fd_sc_hd__and2_1
XFILLER_73_386 VGND VGND VPWR VPWR sky130_fd_sc_hd__decap_6
X_12863_ _12790_/X _12862_/X _12790_/X _12862_/X VGND VGND VPWR VPWR _12864_/B sky130_fd_sc_hd__a2bb2o_1
XFILLER_34_718 VGND VGND VPWR VPWR sky130_fd_sc_hd__decap_4
X_15582_ _16051_/A VGND VGND VPWR VPWR _15685_/A sky130_fd_sc_hd__inv_2
XTAP_1641 VGND VPWR sky130_fd_sc_hd__tapvpwrvgnd_1
XTAP_1630 VGND VPWR sky130_fd_sc_hd__tapvpwrvgnd_1
X_12794_ _12784_/A _12784_/B _12784_/Y VGND VGND VPWR VPWR _12794_/Y sky130_fd_sc_hd__o21ai_1
X_11814_ _11812_/X _11814_/B VGND VGND VPWR VPWR _11814_/Y sky130_fd_sc_hd__nand2b_1
XTAP_1674 VGND VPWR sky130_fd_sc_hd__tapvpwrvgnd_1
XTAP_1685 VGND VPWR sky130_fd_sc_hd__tapvpwrvgnd_1
XTAP_1663 VGND VPWR sky130_fd_sc_hd__tapvpwrvgnd_1
XTAP_1652 VGND VPWR sky130_fd_sc_hd__tapvpwrvgnd_1
X_14533_ _14524_/X _14532_/X _14524_/X _14532_/X VGND VGND VPWR VPWR _14535_/B sky130_fd_sc_hd__a2bb2o_1
X_11745_ _11745_/A _11745_/B VGND VGND VPWR VPWR _11745_/X sky130_fd_sc_hd__or2_1
XTAP_1696 VGND VPWR sky130_fd_sc_hd__tapvpwrvgnd_1
X_14464_ _14464_/A _14464_/B VGND VGND VPWR VPWR _14464_/Y sky130_fd_sc_hd__nand2_1
XFILLER_42_795 VGND VGND VPWR VPWR sky130_fd_sc_hd__decap_3
XFILLER_41_261 VGND VGND VPWR VPWR sky130_fd_sc_hd__decap_4
XFILLER_14_486 VGND VGND VPWR VPWR sky130_fd_sc_hd__decap_8
X_16203_ _16099_/A _16099_/B _16099_/Y VGND VGND VPWR VPWR _16203_/X sky130_fd_sc_hd__o21a_1
X_13415_ _14908_/A _13415_/B VGND VGND VPWR VPWR _14350_/B sky130_fd_sc_hd__or2_1
X_11676_ _15554_/A _11676_/B VGND VGND VPWR VPWR _12643_/B sky130_fd_sc_hd__or2_1
X_14395_ _15966_/A _14395_/B VGND VGND VPWR VPWR _15583_/B sky130_fd_sc_hd__or2_1
X_10627_ _12043_/A VGND VGND VPWR VPWR _15212_/B sky130_fd_sc_hd__inv_2
X_16134_ _16122_/X _16133_/X _16122_/X _16133_/X VGND VGND VPWR VPWR _16135_/B sky130_fd_sc_hd__a2bb2o_1
X_13346_ _13274_/A _13274_/B _13274_/Y VGND VGND VPWR VPWR _13346_/Y sky130_fd_sc_hd__o21ai_1
X_10558_ _09421_/A _09126_/B _09126_/Y VGND VGND VPWR VPWR _10558_/X sky130_fd_sc_hd__o21a_1
X_16065_ _16046_/A _16046_/B _16046_/Y VGND VGND VPWR VPWR _16065_/Y sky130_fd_sc_hd__o21ai_1
XFILLER_115_539 VGND VGND VPWR VPWR sky130_fd_sc_hd__decap_8
XFILLER_115_517 VGND VGND VPWR VPWR sky130_fd_sc_hd__fill_2
X_13277_ _13264_/Y _13275_/X _13276_/Y VGND VGND VPWR VPWR _13278_/A sky130_fd_sc_hd__o21ai_2
X_12228_ _12140_/X _12227_/X _12140_/X _12227_/X VGND VGND VPWR VPWR _12229_/B sky130_fd_sc_hd__a2bb2o_1
X_15016_ _15038_/A _15038_/B VGND VGND VPWR VPWR _15067_/A sky130_fd_sc_hd__and2_1
X_10489_ _10489_/A VGND VGND VPWR VPWR _10489_/Y sky130_fd_sc_hd__inv_2
XFILLER_5_184 VGND VGND VPWR VPWR sky130_fd_sc_hd__decap_4
XFILLER_111_723 VGND VGND VPWR VPWR sky130_fd_sc_hd__decap_4
XFILLER_111_712 VGND VGND VPWR VPWR sky130_fd_sc_hd__decap_3
X_12159_ _12198_/A VGND VGND VPWR VPWR _13202_/A sky130_fd_sc_hd__buf_1
XFILLER_96_467 VGND VGND VPWR VPWR sky130_fd_sc_hd__decap_8
XFILLER_84_629 VGND VGND VPWR VPWR sky130_fd_sc_hd__decap_12
XFILLER_56_309 VGND VGND VPWR VPWR sky130_fd_sc_hd__decap_3
X_15918_ _15970_/A _15970_/B VGND VGND VPWR VPWR _15918_/Y sky130_fd_sc_hd__nor2_1
XFILLER_110_288 VGND VGND VPWR VPWR sky130_fd_sc_hd__decap_4
XFILLER_110_277 VGND VGND VPWR VPWR sky130_fd_sc_hd__decap_4
XFILLER_49_383 VGND VGND VPWR VPWR sky130_fd_sc_hd__decap_8
X_15849_ _14183_/A _15848_/X _12634_/X VGND VGND VPWR VPWR _15849_/X sky130_fd_sc_hd__o21a_1
XFILLER_92_695 VGND VGND VPWR VPWR sky130_fd_sc_hd__decap_4
XFILLER_64_386 VGND VGND VPWR VPWR sky130_fd_sc_hd__decap_4
XFILLER_64_375 VGND VGND VPWR VPWR sky130_fd_sc_hd__decap_6
XFILLER_52_548 VGND VGND VPWR VPWR sky130_fd_sc_hd__decap_6
X_09370_ _09430_/B _09370_/B VGND VGND VPWR VPWR _09370_/X sky130_fd_sc_hd__or2_1
X_08321_ _08321_/A input19/X VGND VGND VPWR VPWR _08322_/B sky130_fd_sc_hd__nor2_1
X_08252_ input17/X VGND VGND VPWR VPWR _08326_/A sky130_fd_sc_hd__clkinvlp_2
XFILLER_20_456 VGND VGND VPWR VPWR sky130_fd_sc_hd__fill_2
XFILLER_118_333 VGND VGND VPWR VPWR sky130_fd_sc_hd__decap_6
XFILLER_9_490 VGND VGND VPWR VPWR sky130_fd_sc_hd__fill_2
XFILLER_133_314 VGND VGND VPWR VPWR sky130_fd_sc_hd__fill_2