* NGSPICE file created from user_project_wrapper.ext - technology: sky130A

* Black-box entry subcircuit for sky130_fd_sc_hd__decap_6 abstract view
.subckt sky130_fd_sc_hd__decap_6 VGND VNB VPB VPWR
.ends

* Black-box entry subcircuit for sky130_fd_sc_hd__fill_1 abstract view
.subckt sky130_fd_sc_hd__fill_1 VGND VNB VPB VPWR
.ends

* Black-box entry subcircuit for sky130_fd_sc_hd__decap_8 abstract view
.subckt sky130_fd_sc_hd__decap_8 VGND VNB VPB VPWR
.ends

* Black-box entry subcircuit for sky130_fd_sc_hd__decap_4 abstract view
.subckt sky130_fd_sc_hd__decap_4 VGND VNB VPB VPWR
.ends

* Black-box entry subcircuit for sky130_fd_sc_hd__clkbuf_2 abstract view
.subckt sky130_fd_sc_hd__clkbuf_2 A VGND VNB VPB VPWR X
.ends

* Black-box entry subcircuit for sky130_fd_sc_hd__inv_2 abstract view
.subckt sky130_fd_sc_hd__inv_2 A VGND VNB VPB VPWR Y
.ends

* Black-box entry subcircuit for sky130_fd_sc_hd__buf_1 abstract view
.subckt sky130_fd_sc_hd__buf_1 A VGND VNB VPB VPWR X
.ends

* Black-box entry subcircuit for sky130_fd_sc_hd__o22a_1 abstract view
.subckt sky130_fd_sc_hd__o22a_1 A1 A2 B1 B2 VGND VNB VPB VPWR X
.ends

* Black-box entry subcircuit for sky130_fd_sc_hd__o21a_1 abstract view
.subckt sky130_fd_sc_hd__o21a_1 A1 A2 B1 VGND VNB VPB VPWR X
.ends

* Black-box entry subcircuit for sky130_fd_sc_hd__or2_1 abstract view
.subckt sky130_fd_sc_hd__or2_1 A B VGND VNB VPB VPWR X
.ends

* Black-box entry subcircuit for sky130_fd_sc_hd__decap_12 abstract view
.subckt sky130_fd_sc_hd__decap_12 VGND VNB VPB VPWR
.ends

* Black-box entry subcircuit for sky130_fd_sc_hd__fill_2 abstract view
.subckt sky130_fd_sc_hd__fill_2 VGND VNB VPB VPWR
.ends

* Black-box entry subcircuit for sky130_fd_sc_hd__o32a_1 abstract view
.subckt sky130_fd_sc_hd__o32a_1 A1 A2 A3 B1 B2 VGND VNB VPB VPWR X
.ends

* Black-box entry subcircuit for sky130_fd_sc_hd__tapvpwrvgnd_1 abstract view
.subckt sky130_fd_sc_hd__tapvpwrvgnd_1 VGND VPWR
.ends

* Black-box entry subcircuit for sky130_fd_sc_hd__a2bb2o_1 abstract view
.subckt sky130_fd_sc_hd__a2bb2o_1 A1_N A2_N B1 B2 VGND VNB VPB VPWR X
.ends

* Black-box entry subcircuit for sky130_fd_sc_hd__nand2_1 abstract view
.subckt sky130_fd_sc_hd__nand2_1 A B VGND VNB VPB VPWR Y
.ends

* Black-box entry subcircuit for sky130_fd_sc_hd__o21ai_1 abstract view
.subckt sky130_fd_sc_hd__o21ai_1 A1 A2 B1 VGND VNB VPB VPWR Y
.ends

* Black-box entry subcircuit for sky130_fd_sc_hd__dlygate4sd1_1 abstract view
.subckt sky130_fd_sc_hd__dlygate4sd1_1 A VGND VNB VPB VPWR X
.ends

* Black-box entry subcircuit for sky130_fd_sc_hd__nor2_1 abstract view
.subckt sky130_fd_sc_hd__nor2_1 A B VGND VNB VPB VPWR Y
.ends

* Black-box entry subcircuit for sky130_fd_sc_hd__o2bb2a_1 abstract view
.subckt sky130_fd_sc_hd__o2bb2a_1 A1_N A2_N B1 B2 VGND VNB VPB VPWR X
.ends

* Black-box entry subcircuit for sky130_fd_sc_hd__a2bb2o_2 abstract view
.subckt sky130_fd_sc_hd__a2bb2o_2 A1_N A2_N B1 B2 VGND VNB VPB VPWR X
.ends

* Black-box entry subcircuit for sky130_fd_sc_hd__a2bb2oi_1 abstract view
.subckt sky130_fd_sc_hd__a2bb2oi_1 A1_N A2_N B1 B2 VGND VNB VPB VPWR Y
.ends

* Black-box entry subcircuit for sky130_fd_sc_hd__a21oi_1 abstract view
.subckt sky130_fd_sc_hd__a21oi_1 A1 A2 B1 VGND VNB VPB VPWR Y
.ends

* Black-box entry subcircuit for sky130_fd_sc_hd__a21o_1 abstract view
.subckt sky130_fd_sc_hd__a21o_1 A1 A2 B1 VGND VNB VPB VPWR X
.ends

* Black-box entry subcircuit for sky130_fd_sc_hd__a2bb2oi_2 abstract view
.subckt sky130_fd_sc_hd__a2bb2oi_2 A1_N A2_N B1 B2 VGND VNB VPB VPWR Y
.ends

* Black-box entry subcircuit for sky130_fd_sc_hd__or2b_1 abstract view
.subckt sky130_fd_sc_hd__or2b_1 A B_N VGND VNB VPB VPWR X
.ends

* Black-box entry subcircuit for sky130_fd_sc_hd__and2_1 abstract view
.subckt sky130_fd_sc_hd__and2_1 A B VGND VNB VPB VPWR X
.ends

* Black-box entry subcircuit for sky130_fd_sc_hd__decap_3 abstract view
.subckt sky130_fd_sc_hd__decap_3 VGND VNB VPB VPWR
.ends

* Black-box entry subcircuit for sky130_fd_sc_hd__a21bo_1 abstract view
.subckt sky130_fd_sc_hd__a21bo_1 A1 A2 B1_N VGND VNB VPB VPWR X
.ends

* Black-box entry subcircuit for sky130_fd_sc_hd__o221a_2 abstract view
.subckt sky130_fd_sc_hd__o221a_2 A1 A2 B1 B2 C1 VGND VNB VPB VPWR X
.ends

* Black-box entry subcircuit for sky130_fd_sc_hd__a221o_2 abstract view
.subckt sky130_fd_sc_hd__a221o_2 A1 A2 B1 B2 C1 VGND VNB VPB VPWR X
.ends

* Black-box entry subcircuit for sky130_fd_sc_hd__and2b_1 abstract view
.subckt sky130_fd_sc_hd__and2b_1 A_N B VGND VNB VPB VPWR X
.ends

* Black-box entry subcircuit for sky130_fd_sc_hd__o21ai_2 abstract view
.subckt sky130_fd_sc_hd__o21ai_2 A1 A2 B1 VGND VNB VPB VPWR Y
.ends

* Black-box entry subcircuit for sky130_fd_sc_hd__dlymetal6s2s_1 abstract view
.subckt sky130_fd_sc_hd__dlymetal6s2s_1 A VGND VNB VPB VPWR X
.ends

* Black-box entry subcircuit for sky130_fd_sc_hd__o221a_1 abstract view
.subckt sky130_fd_sc_hd__o221a_1 A1 A2 B1 B2 C1 VGND VNB VPB VPWR X
.ends

* Black-box entry subcircuit for sky130_fd_sc_hd__a22o_1 abstract view
.subckt sky130_fd_sc_hd__a22o_1 A1 A2 B1 B2 VGND VNB VPB VPWR X
.ends

* Black-box entry subcircuit for sky130_fd_sc_hd__o211a_1 abstract view
.subckt sky130_fd_sc_hd__o211a_1 A1 A2 B1 C1 VGND VNB VPB VPWR X
.ends

* Black-box entry subcircuit for sky130_fd_sc_hd__a31o_1 abstract view
.subckt sky130_fd_sc_hd__a31o_1 A1 A2 A3 B1 VGND VNB VPB VPWR X
.ends

* Black-box entry subcircuit for sky130_fd_sc_hd__a2bb2oi_4 abstract view
.subckt sky130_fd_sc_hd__a2bb2oi_4 A1_N A2_N B1 B2 VGND VNB VPB VPWR Y
.ends

* Black-box entry subcircuit for sky130_fd_sc_hd__or2_2 abstract view
.subckt sky130_fd_sc_hd__or2_2 A B VGND VNB VPB VPWR X
.ends

* Black-box entry subcircuit for sky130_fd_sc_hd__o21ba_1 abstract view
.subckt sky130_fd_sc_hd__o21ba_1 A1 A2 B1_N VGND VNB VPB VPWR X
.ends

* Black-box entry subcircuit for sky130_fd_sc_hd__a221o_1 abstract view
.subckt sky130_fd_sc_hd__a221o_1 A1 A2 B1 B2 C1 VGND VNB VPB VPWR X
.ends

* Black-box entry subcircuit for sky130_fd_sc_hd__buf_4 abstract view
.subckt sky130_fd_sc_hd__buf_4 A VGND VNB VPB VPWR X
.ends

* Black-box entry subcircuit for sky130_fd_sc_hd__o22a_2 abstract view
.subckt sky130_fd_sc_hd__o22a_2 A1 A2 B1 B2 VGND VNB VPB VPWR X
.ends

* Black-box entry subcircuit for sky130_fd_sc_hd__o221a_4 abstract view
.subckt sky130_fd_sc_hd__o221a_4 A1 A2 B1 B2 C1 VGND VNB VPB VPWR X
.ends

* Black-box entry subcircuit for sky130_fd_sc_hd__a2bb2o_4 abstract view
.subckt sky130_fd_sc_hd__a2bb2o_4 A1_N A2_N B1 B2 VGND VNB VPB VPWR X
.ends

* Black-box entry subcircuit for sky130_fd_sc_hd__a21oi_2 abstract view
.subckt sky130_fd_sc_hd__a21oi_2 A1 A2 B1 VGND VNB VPB VPWR Y
.ends

* Black-box entry subcircuit for sky130_fd_sc_hd__o21bai_1 abstract view
.subckt sky130_fd_sc_hd__o21bai_1 A1 A2 B1_N VGND VNB VPB VPWR Y
.ends

* Black-box entry subcircuit for sky130_fd_sc_hd__a32o_1 abstract view
.subckt sky130_fd_sc_hd__a32o_1 A1 A2 A3 B1 B2 VGND VNB VPB VPWR X
.ends

* Black-box entry subcircuit for sky130_fd_sc_hd__a21boi_1 abstract view
.subckt sky130_fd_sc_hd__a21boi_1 A1 A2 B1_N VGND VNB VPB VPWR Y
.ends

* Black-box entry subcircuit for sky130_fd_sc_hd__o22a_4 abstract view
.subckt sky130_fd_sc_hd__o22a_4 A1 A2 B1 B2 VGND VNB VPB VPWR X
.ends

* Black-box entry subcircuit for sky130_fd_sc_hd__and3_1 abstract view
.subckt sky130_fd_sc_hd__and3_1 A B C VGND VNB VPB VPWR X
.ends

* Black-box entry subcircuit for sky130_fd_sc_hd__o2bb2a_2 abstract view
.subckt sky130_fd_sc_hd__o2bb2a_2 A1_N A2_N B1 B2 VGND VNB VPB VPWR X
.ends

* Black-box entry subcircuit for sky130_fd_sc_hd__o2bb2ai_1 abstract view
.subckt sky130_fd_sc_hd__o2bb2ai_1 A1_N A2_N B1 B2 VGND VNB VPB VPWR Y
.ends

* Black-box entry subcircuit for sky130_fd_sc_hd__o22ai_2 abstract view
.subckt sky130_fd_sc_hd__o22ai_2 A1 A2 B1 B2 VGND VNB VPB VPWR Y
.ends

* Black-box entry subcircuit for sky130_fd_sc_hd__or3_1 abstract view
.subckt sky130_fd_sc_hd__or3_1 A B C VGND VNB VPB VPWR X
.ends

* Black-box entry subcircuit for sky130_fd_sc_hd__a22o_2 abstract view
.subckt sky130_fd_sc_hd__a22o_2 A1 A2 B1 B2 VGND VNB VPB VPWR X
.ends

* Black-box entry subcircuit for sky130_fd_sc_hd__a22oi_1 abstract view
.subckt sky130_fd_sc_hd__a22oi_1 A1 A2 B1 B2 VGND VNB VPB VPWR Y
.ends

* Black-box entry subcircuit for sky130_fd_sc_hd__or3_2 abstract view
.subckt sky130_fd_sc_hd__or3_2 A B C VGND VNB VPB VPWR X
.ends

* Black-box entry subcircuit for sky130_fd_sc_hd__dfxtp_1 abstract view
.subckt sky130_fd_sc_hd__dfxtp_1 CLK D VGND VNB VPB VPWR Q
.ends

* Black-box entry subcircuit for sky130_fd_sc_hd__o22ai_1 abstract view
.subckt sky130_fd_sc_hd__o22ai_1 A1 A2 B1 B2 VGND VNB VPB VPWR Y
.ends

* Black-box entry subcircuit for sky130_fd_sc_hd__a22oi_2 abstract view
.subckt sky130_fd_sc_hd__a22oi_2 A1 A2 B1 B2 VGND VNB VPB VPWR Y
.ends

* Black-box entry subcircuit for sky130_fd_sc_hd__or4_1 abstract view
.subckt sky130_fd_sc_hd__or4_1 A B C D VGND VNB VPB VPWR X
.ends

* Black-box entry subcircuit for sky130_fd_sc_hd__or4b_1 abstract view
.subckt sky130_fd_sc_hd__or4b_1 A B C D_N VGND VNB VPB VPWR X
.ends

* Black-box entry subcircuit for sky130_fd_sc_hd__buf_2 abstract view
.subckt sky130_fd_sc_hd__buf_2 A VGND VNB VPB VPWR X
.ends

* Black-box entry subcircuit for sky130_fd_sc_hd__o2bb2ai_2 abstract view
.subckt sky130_fd_sc_hd__o2bb2ai_2 A1_N A2_N B1 B2 VGND VNB VPB VPWR Y
.ends

* Black-box entry subcircuit for sky130_fd_sc_hd__clkbuf_4 abstract view
.subckt sky130_fd_sc_hd__clkbuf_4 A VGND VNB VPB VPWR X
.ends

* Black-box entry subcircuit for sky130_fd_sc_hd__o211ai_1 abstract view
.subckt sky130_fd_sc_hd__o211ai_1 A1 A2 B1 C1 VGND VNB VPB VPWR Y
.ends

* Black-box entry subcircuit for sky130_fd_sc_hd__mux2_1 abstract view
.subckt sky130_fd_sc_hd__mux2_1 A0 A1 S VGND VNB VPB VPWR X
.ends

* Black-box entry subcircuit for sky130_fd_sc_hd__o311a_1 abstract view
.subckt sky130_fd_sc_hd__o311a_1 A1 A2 A3 B1 C1 VGND VNB VPB VPWR X
.ends

* Black-box entry subcircuit for sky130_fd_sc_hd__o2bb2a_4 abstract view
.subckt sky130_fd_sc_hd__o2bb2a_4 A1_N A2_N B1 B2 VGND VNB VPB VPWR X
.ends

* Black-box entry subcircuit for sky130_fd_sc_hd__a2111oi_2 abstract view
.subckt sky130_fd_sc_hd__a2111oi_2 A1 A2 B1 C1 D1 VGND VNB VPB VPWR Y
.ends

* Black-box entry subcircuit for sky130_fd_sc_hd__nand2_2 abstract view
.subckt sky130_fd_sc_hd__nand2_2 A B VGND VNB VPB VPWR Y
.ends

* Black-box entry subcircuit for sky130_fd_sc_hd__o22ai_4 abstract view
.subckt sky130_fd_sc_hd__o22ai_4 A1 A2 B1 B2 VGND VNB VPB VPWR Y
.ends

* Black-box entry subcircuit for sky130_fd_sc_hd__a221o_4 abstract view
.subckt sky130_fd_sc_hd__a221o_4 A1 A2 B1 B2 C1 VGND VNB VPB VPWR X
.ends

* Black-box entry subcircuit for sky130_fd_sc_hd__nor4_1 abstract view
.subckt sky130_fd_sc_hd__nor4_1 A B C D VGND VNB VPB VPWR Y
.ends

* Black-box entry subcircuit for sky130_fd_sc_hd__or2_4 abstract view
.subckt sky130_fd_sc_hd__or2_4 A B VGND VNB VPB VPWR X
.ends

* Black-box entry subcircuit for sky130_fd_sc_hd__o31a_1 abstract view
.subckt sky130_fd_sc_hd__o31a_1 A1 A2 A3 B1 VGND VNB VPB VPWR X
.ends

* Black-box entry subcircuit for sky130_fd_sc_hd__a21bo_2 abstract view
.subckt sky130_fd_sc_hd__a21bo_2 A1 A2 B1_N VGND VNB VPB VPWR X
.ends

* Black-box entry subcircuit for sky130_fd_sc_hd__nor2_2 abstract view
.subckt sky130_fd_sc_hd__nor2_2 A B VGND VNB VPB VPWR Y
.ends

* Black-box entry subcircuit for sky130_fd_sc_hd__clkbuf_16 abstract view
.subckt sky130_fd_sc_hd__clkbuf_16 A VGND VNB VPB VPWR X
.ends

* Black-box entry subcircuit for sky130_fd_sc_hd__nand2b_1 abstract view
.subckt sky130_fd_sc_hd__nand2b_1 A_N B VGND VNB VPB VPWR Y
.ends

* Black-box entry subcircuit for sky130_fd_sc_hd__dlxtn_1 abstract view
.subckt sky130_fd_sc_hd__dlxtn_1 D GATE_N VGND VNB VPB VPWR Q
.ends

* Black-box entry subcircuit for sky130_fd_sc_hd__conb_1 abstract view
.subckt sky130_fd_sc_hd__conb_1 VGND VNB VPB VPWR HI LO
.ends

* Black-box entry subcircuit for sky130_fd_sc_hd__diode_2 abstract view
.subckt sky130_fd_sc_hd__diode_2 DIODE VGND VNB VPB VPWR
.ends

* Black-box entry subcircuit for sky130_fd_sc_hd__o211a_2 abstract view
.subckt sky130_fd_sc_hd__o211a_2 A1 A2 B1 C1 VGND VNB VPB VPWR X
.ends

* Black-box entry subcircuit for sky130_fd_sc_hd__o41a_1 abstract view
.subckt sky130_fd_sc_hd__o41a_1 A1 A2 A3 A4 B1 VGND VNB VPB VPWR X
.ends

* Black-box entry subcircuit for sky130_fd_sc_hd__nor3b_1 abstract view
.subckt sky130_fd_sc_hd__nor3b_1 A B C_N VGND VNB VPB VPWR Y
.ends

* Black-box entry subcircuit for sky130_fd_sc_hd__o211ai_4 abstract view
.subckt sky130_fd_sc_hd__o211ai_4 A1 A2 B1 C1 VGND VNB VPB VPWR Y
.ends

.subckt user_project_wrapper VGND VPWR wb_clk_i wb_rst_i wbs_ack_o wbs_adr_i[0] wbs_adr_i[10]
+ wbs_adr_i[11] wbs_adr_i[12] wbs_adr_i[13] wbs_adr_i[14] wbs_adr_i[15] wbs_adr_i[16]
+ wbs_adr_i[17] wbs_adr_i[18] wbs_adr_i[19] wbs_adr_i[1] wbs_adr_i[20] wbs_adr_i[21]
+ wbs_adr_i[22] wbs_adr_i[23] wbs_adr_i[24] wbs_adr_i[25] wbs_adr_i[26] wbs_adr_i[27]
+ wbs_adr_i[28] wbs_adr_i[29] wbs_adr_i[2] wbs_adr_i[30] wbs_adr_i[31] wbs_adr_i[3]
+ wbs_adr_i[4] wbs_adr_i[5] wbs_adr_i[6] wbs_adr_i[7] wbs_adr_i[8] wbs_adr_i[9] wbs_dat_i[0]
+ wbs_dat_i[10] wbs_dat_i[11] wbs_dat_i[12] wbs_dat_i[13] wbs_dat_i[14] wbs_dat_i[15]
+ wbs_dat_i[16] wbs_dat_i[17] wbs_dat_i[18] wbs_dat_i[19] wbs_dat_i[1] wbs_dat_i[20]
+ wbs_dat_i[21] wbs_dat_i[22] wbs_dat_i[23] wbs_dat_i[24] wbs_dat_i[25] wbs_dat_i[26]
+ wbs_dat_i[27] wbs_dat_i[28] wbs_dat_i[29] wbs_dat_i[2] wbs_dat_i[30] wbs_dat_i[31]
+ wbs_dat_i[3] wbs_dat_i[4] wbs_dat_i[5] wbs_dat_i[6] wbs_dat_i[7] wbs_dat_i[8] wbs_dat_i[9]
XFILLER_100_127 VGND VGND VPWR VPWR sky130_fd_sc_hd__decap_6
XFILLER_79_391 VGND VGND VPWR VPWR sky130_fd_sc_hd__fill_1
XFILLER_67_586 VGND VGND VPWR VPWR sky130_fd_sc_hd__decap_8
XFILLER_54_203 VGND VGND VPWR VPWR sky130_fd_sc_hd__decap_4
X_09671_ _10761_/A VGND VGND VPWR VPWR _09672_/A sky130_fd_sc_hd__clkbuf_2
XFILLER_94_383 VGND VGND VPWR VPWR sky130_fd_sc_hd__decap_4
XFILLER_54_225 VGND VGND VPWR VPWR sky130_fd_sc_hd__decap_4
X_08622_ _08622_/A VGND VGND VPWR VPWR _10112_/B sky130_fd_sc_hd__inv_2
XFILLER_27_439 VGND VGND VPWR VPWR sky130_fd_sc_hd__fill_1
XFILLER_70_707 VGND VGND VPWR VPWR sky130_fd_sc_hd__decap_6
X_08553_ _09470_/B VGND VGND VPWR VPWR _08688_/A sky130_fd_sc_hd__buf_1
XFILLER_35_472 VGND VGND VPWR VPWR sky130_fd_sc_hd__decap_4
X_08484_ _08275_/A _08357_/B _08480_/Y _08483_/X VGND VGND VPWR VPWR _08625_/A sky130_fd_sc_hd__o22a_1
XFILLER_23_601 VGND VGND VPWR VPWR sky130_fd_sc_hd__decap_4
XFILLER_23_612 VGND VGND VPWR VPWR sky130_fd_sc_hd__decap_4
XFILLER_62_291 VGND VGND VPWR VPWR sky130_fd_sc_hd__decap_4
XFILLER_50_442 VGND VGND VPWR VPWR sky130_fd_sc_hd__decap_4
XFILLER_22_122 VGND VGND VPWR VPWR sky130_fd_sc_hd__decap_4
XFILLER_23_634 VGND VGND VPWR VPWR sky130_fd_sc_hd__decap_4
XFILLER_50_475 VGND VGND VPWR VPWR sky130_fd_sc_hd__fill_1
XFILLER_23_678 VGND VGND VPWR VPWR sky130_fd_sc_hd__decap_4
XFILLER_23_689 VGND VGND VPWR VPWR sky130_fd_sc_hd__decap_4
X_09105_ _08674_/Y _09028_/A _09030_/B VGND VGND VPWR VPWR _09105_/X sky130_fd_sc_hd__o21a_1
XFILLER_108_238 VGND VGND VPWR VPWR sky130_fd_sc_hd__decap_4
X_09036_ _09555_/B _09036_/B VGND VGND VPWR VPWR _09037_/B sky130_fd_sc_hd__or2_1
XFILLER_117_750 VGND VGND VPWR VPWR sky130_fd_sc_hd__decap_12
XFILLER_104_400 VGND VGND VPWR VPWR sky130_fd_sc_hd__decap_8
XFILLER_117_77 VGND VGND VPWR VPWR sky130_fd_sc_hd__decap_4
XFILLER_117_66 VGND VGND VPWR VPWR sky130_fd_sc_hd__decap_4
XFILLER_104_455 VGND VGND VPWR VPWR sky130_fd_sc_hd__decap_8
XFILLER_117_99 VGND VGND VPWR VPWR sky130_fd_sc_hd__decap_4
XFILLER_89_166 VGND VGND VPWR VPWR sky130_fd_sc_hd__fill_2
X_09938_ _09936_/X _09937_/Y _09791_/C _09874_/X _09888_/X VGND VGND VPWR VPWR _09938_/X
+ sky130_fd_sc_hd__o32a_1
XFILLER_100_661 VGND VGND VPWR VPWR sky130_fd_sc_hd__decap_4
XFILLER_92_309 VGND VGND VPWR VPWR sky130_fd_sc_hd__decap_4
XFILLER_58_564 VGND VGND VPWR VPWR sky130_fd_sc_hd__decap_12
XFILLER_46_704 VGND VGND VPWR VPWR sky130_fd_sc_hd__decap_4
X_09869_ _09451_/Y _09868_/X _09472_/X VGND VGND VPWR VPWR _09869_/X sky130_fd_sc_hd__o21a_1
XFILLER_93_47 VGND VGND VPWR VPWR sky130_fd_sc_hd__decap_8
XFILLER_93_25 VGND VGND VPWR VPWR sky130_fd_sc_hd__decap_12
XFILLER_73_534 VGND VGND VPWR VPWR sky130_fd_sc_hd__decap_6
X_11900_ _11900_/A VGND VGND VPWR VPWR _11900_/Y sky130_fd_sc_hd__inv_2
X_12880_ _12938_/A VGND VGND VPWR VPWR _14532_/A sky130_fd_sc_hd__buf_1
XFILLER_45_225 VGND VGND VPWR VPWR sky130_fd_sc_hd__fill_1
XTAP_1800 VGND VPWR sky130_fd_sc_hd__tapvpwrvgnd_1
XFILLER_93_69 VGND VGND VPWR VPWR sky130_fd_sc_hd__decap_4
XFILLER_73_578 VGND VGND VPWR VPWR sky130_fd_sc_hd__decap_4
XFILLER_73_567 VGND VGND VPWR VPWR sky130_fd_sc_hd__fill_1
X_11831_ _12826_/A _11791_/B _11791_/A _11791_/B VGND VGND VPWR VPWR _11831_/X sky130_fd_sc_hd__a2bb2o_1
XFILLER_45_269 VGND VGND VPWR VPWR sky130_fd_sc_hd__decap_4
XTAP_1833 VGND VPWR sky130_fd_sc_hd__tapvpwrvgnd_1
XTAP_1822 VGND VPWR sky130_fd_sc_hd__tapvpwrvgnd_1
XTAP_1811 VGND VPWR sky130_fd_sc_hd__tapvpwrvgnd_1
X_14550_ _14517_/X _14549_/X _14517_/X _14549_/X VGND VGND VPWR VPWR _14582_/B sky130_fd_sc_hd__a2bb2o_1
XFILLER_60_228 VGND VGND VPWR VPWR sky130_fd_sc_hd__decap_8
XFILLER_13_100 VGND VGND VPWR VPWR sky130_fd_sc_hd__fill_1
XFILLER_26_472 VGND VGND VPWR VPWR sky130_fd_sc_hd__decap_4
XFILLER_26_483 VGND VGND VPWR VPWR sky130_fd_sc_hd__decap_4
XTAP_1866 VGND VPWR sky130_fd_sc_hd__tapvpwrvgnd_1
XTAP_1855 VGND VPWR sky130_fd_sc_hd__tapvpwrvgnd_1
XTAP_1844 VGND VPWR sky130_fd_sc_hd__tapvpwrvgnd_1
X_13501_ _13501_/A _13501_/B VGND VGND VPWR VPWR _13501_/Y sky130_fd_sc_hd__nand2_1
X_11762_ _10381_/A _11761_/A _10381_/Y _11805_/B VGND VGND VPWR VPWR _11764_/B sky130_fd_sc_hd__o22a_1
XFILLER_14_645 VGND VGND VPWR VPWR sky130_fd_sc_hd__fill_2
XTAP_1899 VGND VPWR sky130_fd_sc_hd__tapvpwrvgnd_1
XTAP_1877 VGND VPWR sky130_fd_sc_hd__tapvpwrvgnd_1
XTAP_1888 VGND VPWR sky130_fd_sc_hd__tapvpwrvgnd_1
X_11693_ _12788_/A VGND VGND VPWR VPWR _13995_/A sky130_fd_sc_hd__buf_1
X_14481_ _14481_/A VGND VGND VPWR VPWR _15196_/A sky130_fd_sc_hd__buf_1
XFILLER_13_144 VGND VGND VPWR VPWR sky130_fd_sc_hd__decap_4
XFILLER_14_689 VGND VGND VPWR VPWR sky130_fd_sc_hd__decap_4
X_10713_ _09978_/A _09652_/B _09652_/Y VGND VGND VPWR VPWR _10713_/X sky130_fd_sc_hd__o21a_1
X_16220_ _16253_/B VGND VGND VPWR VPWR _16320_/A sky130_fd_sc_hd__buf_1
X_13432_ _13428_/Y _13430_/Y _13431_/Y VGND VGND VPWR VPWR _13436_/B sky130_fd_sc_hd__o21ai_1
X_10644_ _11907_/A _10644_/B VGND VGND VPWR VPWR _10644_/Y sky130_fd_sc_hd__nand2_1
XFILLER_9_148 VGND VGND VPWR VPWR sky130_fd_sc_hd__fill_1
X_16151_ _15818_/X _16150_/X _15818_/X _16150_/X VGND VGND VPWR VPWR _16152_/B sky130_fd_sc_hd__a2bb2o_1
X_13363_ _13363_/A _13363_/B VGND VGND VPWR VPWR _13363_/X sky130_fd_sc_hd__or2_1
X_10575_ _13516_/A _10663_/B _13516_/A _10663_/B VGND VGND VPWR VPWR _10575_/X sky130_fd_sc_hd__a2bb2o_1
XFILLER_127_536 VGND VGND VPWR VPWR sky130_fd_sc_hd__decap_4
X_12314_ _12322_/A VGND VGND VPWR VPWR _15512_/A sky130_fd_sc_hd__buf_1
X_15102_ _12380_/X _15101_/X _12380_/X _15101_/X VGND VGND VPWR VPWR _15104_/B sky130_fd_sc_hd__a2bb2o_1
Xrebuffer7 rebuffer8/X VGND VGND VPWR VPWR rebuffer7/X sky130_fd_sc_hd__dlygate4sd1_1
X_16082_ _16084_/A _16084_/B VGND VGND VPWR VPWR _16082_/Y sky130_fd_sc_hd__nor2_1
XFILLER_108_772 VGND VGND VPWR VPWR sky130_fd_sc_hd__decap_6
X_13294_ _14737_/A _13294_/B VGND VGND VPWR VPWR _13294_/Y sky130_fd_sc_hd__nand2_1
XFILLER_107_260 VGND VGND VPWR VPWR sky130_fd_sc_hd__fill_1
X_12245_ _14058_/A _12209_/B _12209_/Y _12244_/X VGND VGND VPWR VPWR _12245_/X sky130_fd_sc_hd__a2bb2o_1
X_15033_ _15076_/A _15031_/X _15032_/X VGND VGND VPWR VPWR _15033_/X sky130_fd_sc_hd__o21a_1
XFILLER_123_753 VGND VGND VPWR VPWR sky130_fd_sc_hd__decap_12
XFILLER_122_230 VGND VGND VPWR VPWR sky130_fd_sc_hd__fill_1
X_12176_ _12176_/A VGND VGND VPWR VPWR _12268_/B sky130_fd_sc_hd__inv_2
XFILLER_110_403 VGND VGND VPWR VPWR sky130_fd_sc_hd__fill_1
XFILLER_68_317 VGND VGND VPWR VPWR sky130_fd_sc_hd__decap_8
X_11127_ _12187_/A VGND VGND VPWR VPWR _13716_/A sky130_fd_sc_hd__buf_1
XFILLER_1_571 VGND VGND VPWR VPWR sky130_fd_sc_hd__decap_4
XFILLER_96_648 VGND VGND VPWR VPWR sky130_fd_sc_hd__decap_4
X_15935_ _15891_/X _15934_/Y _15891_/X _15934_/Y VGND VGND VPWR VPWR _15954_/B sky130_fd_sc_hd__a2bb2o_1
XFILLER_95_169 VGND VGND VPWR VPWR sky130_fd_sc_hd__fill_1
XFILLER_95_158 VGND VGND VPWR VPWR sky130_fd_sc_hd__decap_8
XFILLER_76_350 VGND VGND VPWR VPWR sky130_fd_sc_hd__decap_4
X_11058_ _12232_/A VGND VGND VPWR VPWR _11792_/A sky130_fd_sc_hd__inv_2
XFILLER_37_704 VGND VGND VPWR VPWR sky130_fd_sc_hd__decap_8
X_15866_ _15866_/A VGND VGND VPWR VPWR _15896_/A sky130_fd_sc_hd__inv_2
XFILLER_36_225 VGND VGND VPWR VPWR sky130_fd_sc_hd__decap_4
X_10009_ _10009_/A _10009_/B VGND VGND VPWR VPWR _10035_/B sky130_fd_sc_hd__nor2_1
X_14817_ _14812_/A _14812_/B _14812_/Y _14816_/X VGND VGND VPWR VPWR _14817_/X sky130_fd_sc_hd__o2bb2a_1
XFILLER_64_545 VGND VGND VPWR VPWR sky130_fd_sc_hd__decap_4
XFILLER_36_236 VGND VGND VPWR VPWR sky130_fd_sc_hd__decap_4
X_15797_ _15671_/A _15671_/B _15671_/Y VGND VGND VPWR VPWR _15797_/Y sky130_fd_sc_hd__o21ai_1
XFILLER_64_589 VGND VGND VPWR VPWR sky130_fd_sc_hd__decap_4
XFILLER_83_91 VGND VGND VPWR VPWR sky130_fd_sc_hd__decap_4
X_14748_ _14668_/X _14682_/A _14681_/X VGND VGND VPWR VPWR _14748_/X sky130_fd_sc_hd__o21a_1
XFILLER_60_740 VGND VGND VPWR VPWR sky130_fd_sc_hd__fill_1
XFILLER_44_291 VGND VGND VPWR VPWR sky130_fd_sc_hd__decap_4
X_14679_ _14670_/X _14678_/X _14670_/X _14678_/X VGND VGND VPWR VPWR _14681_/B sky130_fd_sc_hd__a2bb2o_1
XFILLER_20_615 VGND VGND VPWR VPWR sky130_fd_sc_hd__fill_2
XFILLER_32_475 VGND VGND VPWR VPWR sky130_fd_sc_hd__fill_1
X_16418_ _16473_/Q VGND VGND VPWR VPWR _16419_/B sky130_fd_sc_hd__inv_2
XFILLER_32_497 VGND VGND VPWR VPWR sky130_fd_sc_hd__decap_4
X_16349_ _16335_/X _16348_/Y _16335_/X _16348_/Y VGND VGND VPWR VPWR _16349_/X sky130_fd_sc_hd__a2bb2o_2
XFILLER_8_192 VGND VGND VPWR VPWR sky130_fd_sc_hd__decap_4
XFILLER_113_241 VGND VGND VPWR VPWR sky130_fd_sc_hd__decap_4
XFILLER_87_615 VGND VGND VPWR VPWR sky130_fd_sc_hd__fill_1
XFILLER_59_317 VGND VGND VPWR VPWR sky130_fd_sc_hd__decap_4
XFILLER_101_447 VGND VGND VPWR VPWR sky130_fd_sc_hd__fill_1
XFILLER_87_659 VGND VGND VPWR VPWR sky130_fd_sc_hd__decap_6
XFILLER_86_147 VGND VGND VPWR VPWR sky130_fd_sc_hd__decap_4
X_09723_ _09723_/A _09723_/B VGND VGND VPWR VPWR _09723_/Y sky130_fd_sc_hd__nand2_1
XFILLER_82_320 VGND VGND VPWR VPWR sky130_fd_sc_hd__decap_12
XFILLER_55_534 VGND VGND VPWR VPWR sky130_fd_sc_hd__decap_4
X_09654_ _09981_/A _09654_/B VGND VGND VPWR VPWR _09654_/Y sky130_fd_sc_hd__nand2_1
XFILLER_27_203 VGND VGND VPWR VPWR sky130_fd_sc_hd__decap_4
XFILLER_55_556 VGND VGND VPWR VPWR sky130_fd_sc_hd__decap_4
XFILLER_55_545 VGND VGND VPWR VPWR sky130_fd_sc_hd__decap_4
XFILLER_43_718 VGND VGND VPWR VPWR sky130_fd_sc_hd__decap_8
X_08605_ _09250_/A _09217_/B _10015_/A _08604_/Y VGND VGND VPWR VPWR _08605_/X sky130_fd_sc_hd__o22a_1
XFILLER_27_258 VGND VGND VPWR VPWR sky130_fd_sc_hd__decap_8
XFILLER_82_375 VGND VGND VPWR VPWR sky130_fd_sc_hd__decap_4
XTAP_1129 VGND VPWR sky130_fd_sc_hd__tapvpwrvgnd_1
XTAP_1118 VGND VPWR sky130_fd_sc_hd__tapvpwrvgnd_1
XTAP_1107 VGND VPWR sky130_fd_sc_hd__tapvpwrvgnd_1
XFILLER_43_729 VGND VGND VPWR VPWR sky130_fd_sc_hd__fill_1
X_09585_ _09993_/A _09662_/B VGND VGND VPWR VPWR _09585_/Y sky130_fd_sc_hd__nor2_1
XFILLER_27_269 VGND VGND VPWR VPWR sky130_fd_sc_hd__decap_4
X_08536_ _08535_/A _08453_/Y _08535_/Y _08453_/A VGND VGND VPWR VPWR _10119_/B sky130_fd_sc_hd__o22a_1
XFILLER_51_762 VGND VGND VPWR VPWR sky130_fd_sc_hd__decap_4
X_08467_ _09146_/A VGND VGND VPWR VPWR _08704_/B sky130_fd_sc_hd__inv_2
XFILLER_23_475 VGND VGND VPWR VPWR sky130_fd_sc_hd__decap_4
XFILLER_10_103 VGND VGND VPWR VPWR sky130_fd_sc_hd__decap_8
X_08398_ _09232_/B VGND VGND VPWR VPWR _08398_/Y sky130_fd_sc_hd__inv_2
XFILLER_109_503 VGND VGND VPWR VPWR sky130_fd_sc_hd__fill_1
X_10360_ _13525_/A _10319_/B _10319_/X _10359_/X VGND VGND VPWR VPWR _10360_/X sky130_fd_sc_hd__o22a_1
XFILLER_128_65 VGND VGND VPWR VPWR sky130_fd_sc_hd__decap_12
XFILLER_124_528 VGND VGND VPWR VPWR sky130_fd_sc_hd__decap_4
XFILLER_105_720 VGND VGND VPWR VPWR sky130_fd_sc_hd__fill_1
X_10291_ _12706_/A _10291_/B VGND VGND VPWR VPWR _10291_/X sky130_fd_sc_hd__or2_1
X_09019_ _09019_/A VGND VGND VPWR VPWR _09531_/B sky130_fd_sc_hd__inv_2
X_12030_ _13190_/A _12055_/B VGND VGND VPWR VPWR _12030_/Y sky130_fd_sc_hd__nor2_1
XFILLER_120_701 VGND VGND VPWR VPWR sky130_fd_sc_hd__fill_2
XFILLER_104_263 VGND VGND VPWR VPWR sky130_fd_sc_hd__decap_12
XFILLER_78_615 VGND VGND VPWR VPWR sky130_fd_sc_hd__decap_4
XFILLER_120_734 VGND VGND VPWR VPWR sky130_fd_sc_hd__decap_12
X_13981_ _14836_/A _13981_/B VGND VGND VPWR VPWR _13981_/Y sky130_fd_sc_hd__nor2_1
X_15720_ _14923_/X _15719_/X _14923_/X _15719_/X VGND VGND VPWR VPWR _15721_/B sky130_fd_sc_hd__a2bb2oi_1
X_12932_ _12932_/A _12932_/B VGND VGND VPWR VPWR _12932_/Y sky130_fd_sc_hd__nand2_1
X_15651_ _15651_/A VGND VGND VPWR VPWR _15651_/Y sky130_fd_sc_hd__inv_2
XFILLER_73_342 VGND VGND VPWR VPWR sky130_fd_sc_hd__decap_4
XFILLER_46_556 VGND VGND VPWR VPWR sky130_fd_sc_hd__fill_1
X_14602_ _14593_/X _14601_/X _14593_/X _14601_/X VGND VGND VPWR VPWR _14604_/B sky130_fd_sc_hd__a2bb2o_1
X_12863_ _12863_/A _12863_/B VGND VGND VPWR VPWR _12863_/Y sky130_fd_sc_hd__nor2_1
XFILLER_33_206 VGND VGND VPWR VPWR sky130_fd_sc_hd__decap_4
X_15582_ _16051_/A VGND VGND VPWR VPWR _15685_/A sky130_fd_sc_hd__inv_2
XTAP_1641 VGND VPWR sky130_fd_sc_hd__tapvpwrvgnd_1
XTAP_1630 VGND VPWR sky130_fd_sc_hd__tapvpwrvgnd_1
X_12794_ _12782_/X _12793_/Y _12782_/X _12793_/Y VGND VGND VPWR VPWR _12858_/B sky130_fd_sc_hd__a2bb2o_1
X_11814_ _12771_/A _11848_/A _11813_/Y VGND VGND VPWR VPWR _11814_/Y sky130_fd_sc_hd__a21oi_1
XTAP_1685 VGND VPWR sky130_fd_sc_hd__tapvpwrvgnd_1
XTAP_1674 VGND VPWR sky130_fd_sc_hd__tapvpwrvgnd_1
XTAP_1663 VGND VPWR sky130_fd_sc_hd__tapvpwrvgnd_1
XTAP_1652 VGND VPWR sky130_fd_sc_hd__tapvpwrvgnd_1
X_14533_ _14532_/A _14532_/B _14532_/Y VGND VGND VPWR VPWR _14533_/X sky130_fd_sc_hd__a21o_1
XFILLER_42_762 VGND VGND VPWR VPWR sky130_fd_sc_hd__decap_4
X_11745_ _11745_/A _11745_/B VGND VGND VPWR VPWR _11745_/X sky130_fd_sc_hd__or2_1
XFILLER_14_442 VGND VGND VPWR VPWR sky130_fd_sc_hd__fill_1
XTAP_1696 VGND VPWR sky130_fd_sc_hd__tapvpwrvgnd_1
X_14464_ _14451_/Y _14462_/X _14463_/Y VGND VGND VPWR VPWR _14464_/X sky130_fd_sc_hd__o21a_1
XFILLER_14_486 VGND VGND VPWR VPWR sky130_fd_sc_hd__decap_4
XFILLER_127_300 VGND VGND VPWR VPWR sky130_fd_sc_hd__decap_8
X_16203_ _16099_/A _16099_/B _16099_/Y VGND VGND VPWR VPWR _16203_/X sky130_fd_sc_hd__o21a_1
X_13415_ _13357_/X _13414_/X _13357_/X _13414_/X VGND VGND VPWR VPWR _13415_/Y sky130_fd_sc_hd__a2bb2oi_2
X_11676_ _11617_/Y _11621_/Y _12425_/A _11615_/A VGND VGND VPWR VPWR _11676_/X sky130_fd_sc_hd__a2bb2o_2
XFILLER_41_294 VGND VGND VPWR VPWR sky130_fd_sc_hd__fill_1
X_14395_ _15590_/A _14393_/X _14394_/X VGND VGND VPWR VPWR _14395_/X sky130_fd_sc_hd__o21a_1
X_10627_ _13001_/A _10626_/B _10764_/A _10626_/Y VGND VGND VPWR VPWR _10627_/X sky130_fd_sc_hd__o2bb2a_1
X_16134_ _16122_/X _16133_/X _16122_/X _16133_/X VGND VGND VPWR VPWR _16135_/B sky130_fd_sc_hd__a2bb2o_1
X_13346_ _13349_/A VGND VGND VPWR VPWR _15470_/A sky130_fd_sc_hd__buf_1
X_10558_ _10966_/A _11207_/A VGND VGND VPWR VPWR _10559_/A sky130_fd_sc_hd__or2_1
XFILLER_127_388 VGND VGND VPWR VPWR sky130_fd_sc_hd__decap_4
X_16065_ _16046_/A _16046_/B _16046_/Y VGND VGND VPWR VPWR _16065_/Y sky130_fd_sc_hd__o21ai_1
X_13277_ _13264_/Y _13275_/X _13276_/Y VGND VGND VPWR VPWR _13278_/A sky130_fd_sc_hd__o21ai_1
XFILLER_6_696 VGND VGND VPWR VPWR sky130_fd_sc_hd__decap_4
X_12228_ _12228_/A _12137_/X VGND VGND VPWR VPWR _12228_/X sky130_fd_sc_hd__or2b_1
X_10489_ _13625_/A _10531_/B VGND VGND VPWR VPWR _10489_/Y sky130_fd_sc_hd__nor2_1
X_15016_ _15038_/A _15038_/B VGND VGND VPWR VPWR _15067_/A sky130_fd_sc_hd__and2_1
XFILLER_123_561 VGND VGND VPWR VPWR sky130_fd_sc_hd__fill_1
XFILLER_69_615 VGND VGND VPWR VPWR sky130_fd_sc_hd__fill_1
XFILLER_110_211 VGND VGND VPWR VPWR sky130_fd_sc_hd__decap_8
XFILLER_78_91 VGND VGND VPWR VPWR sky130_fd_sc_hd__decap_4
X_12159_ _12158_/Y _12067_/X _12101_/Y VGND VGND VPWR VPWR _12159_/X sky130_fd_sc_hd__o21a_1
XFILLER_96_489 VGND VGND VPWR VPWR sky130_fd_sc_hd__decap_6
X_15918_ _15970_/A _15970_/B VGND VGND VPWR VPWR _15918_/Y sky130_fd_sc_hd__nor2_1
XFILLER_77_692 VGND VGND VPWR VPWR sky130_fd_sc_hd__decap_4
XFILLER_37_534 VGND VGND VPWR VPWR sky130_fd_sc_hd__decap_8
XFILLER_37_523 VGND VGND VPWR VPWR sky130_fd_sc_hd__decap_8
XFILLER_76_180 VGND VGND VPWR VPWR sky130_fd_sc_hd__decap_4
XFILLER_37_545 VGND VGND VPWR VPWR sky130_fd_sc_hd__decap_6
XFILLER_25_707 VGND VGND VPWR VPWR sky130_fd_sc_hd__decap_4
X_15849_ _14184_/A _15848_/X _12633_/X VGND VGND VPWR VPWR _15849_/X sky130_fd_sc_hd__o21a_1
XFILLER_92_684 VGND VGND VPWR VPWR sky130_fd_sc_hd__decap_4
XFILLER_92_673 VGND VGND VPWR VPWR sky130_fd_sc_hd__decap_6
XFILLER_91_183 VGND VGND VPWR VPWR sky130_fd_sc_hd__decap_4
XFILLER_24_239 VGND VGND VPWR VPWR sky130_fd_sc_hd__decap_4
X_09370_ _10238_/A VGND VGND VPWR VPWR _09371_/B sky130_fd_sc_hd__buf_1
X_08321_ _08321_/A input19/X VGND VGND VPWR VPWR _08322_/B sky130_fd_sc_hd__nor2_1
XFILLER_60_592 VGND VGND VPWR VPWR sky130_fd_sc_hd__decap_6
X_08252_ input17/X VGND VGND VPWR VPWR _08326_/A sky130_fd_sc_hd__inv_2
XFILLER_20_401 VGND VGND VPWR VPWR sky130_fd_sc_hd__decap_4
XFILLER_106_506 VGND VGND VPWR VPWR sky130_fd_sc_hd__decap_4
XFILLER_106_517 VGND VGND VPWR VPWR sky130_fd_sc_hd__decap_4
XFILLER_102_701 VGND VGND VPWR VPWR sky130_fd_sc_hd__decap_8
XFILLER_87_412 VGND VGND VPWR VPWR sky130_fd_sc_hd__decap_8
XFILLER_102_778 VGND VGND VPWR VPWR sky130_fd_sc_hd__fill_1
XFILLER_75_629 VGND VGND VPWR VPWR sky130_fd_sc_hd__decap_6
XFILLER_75_607 VGND VGND VPWR VPWR sky130_fd_sc_hd__decap_8
XFILLER_59_169 VGND VGND VPWR VPWR sky130_fd_sc_hd__decap_3
XFILLER_59_158 VGND VGND VPWR VPWR sky130_fd_sc_hd__decap_8